<?xml version="1.0" encoding="UTF-8"?>
<!DOCTYPE facilities SYSTEM "http://www.matsim.org/files/dtd/facilities_v1.dtd">
<facilities name="Amenities">

<!-- ====================================================================== -->

	<facility id="1000705031" x="687459.3501655359" y="6647358.004241286" desc="Райский сад">
		<activity type="l2">
		</activity>

	</facility>

<!-- ====================================================================== -->

	<facility id="1000707405" x="687707.1059379198" y="6648203.815139558" desc="Верста">
		<activity type="l2">
		</activity>

	</facility>

<!-- ====================================================================== -->

	<facility id="1000766956" x="684409.2601990829" y="6651345.021620473" desc="Дар Эдема">
		<activity type="s">
		</activity>

	</facility>

<!-- ====================================================================== -->

	<facility id="1000780544" x="685426.6012110973" y="6648347.180136058" desc="Сыта-Пьяна">
		<activity type="l2">
		</activity>

	</facility>

<!-- ====================================================================== -->

	<facility id="1000806053" x="688954.0060411862" y="6650344.693423204" desc="Шаляпин">
		<activity type="l2">
		</activity>

	</facility>

<!-- ====================================================================== -->

	<facility id="1000806074" x="688917.9241481827" y="6650301.625428129" desc="Городская поликлиника №38 и круглосуточный травмапункт">
		<activity type="hospital">
		</activity>

	</facility>

<!-- ====================================================================== -->

	<facility id="1000806080" x="688912.1195613861" y="6650297.925859227" desc="Фармакор">
		<activity type="pharmacy">
		</activity>

	</facility>

<!-- ====================================================================== -->

	<facility id="1000806092" x="688970.216197633" y="6650343.871813892" desc="Опиум">
		<activity type="s">
		</activity>

	</facility>

<!-- ====================================================================== -->

	<facility id="1000806094" x="688965.9169267828" y="6650257.05788674" desc="Школа №18">
		<activity type="school">
		</activity>

	</facility>

<!-- ====================================================================== -->

	<facility id="1000806099" x="688909.2364518468" y="6650344.109751319" desc="Дикси">
		<activity type="s">
		</activity>

	</facility>

<!-- ====================================================================== -->

	<facility id="1001227312" x="682702.2693350847" y="6649942.459278288" desc="Полушка">
		<activity type="s">
		</activity>

	</facility>

<!-- ====================================================================== -->

	<facility id="1004426017" x="686814.5229457981" y="6648038.563112488" desc="Tres Amigos">
		<activity type="l2">
		</activity>

	</facility>

<!-- ====================================================================== -->

	<facility id="1004966164" x="682583.981890921" y="6649235.784925076" desc="Дикси">
		<activity type="s">
		</activity>

	</facility>

<!-- ====================================================================== -->

	<facility id="1005338916" x="683676.0550484874" y="6651561.150833394" desc="diskаунт">
		<activity type="s">
		</activity>

	</facility>

<!-- ====================================================================== -->

	<facility id="1005338920" x="683652.1099768961" y="6651527.620726148" desc="Треволина">
		<activity type="s">
		</activity>

	</facility>

<!-- ====================================================================== -->

	<facility id="1005338923" x="683728.4421800156" y="6651646.729835118" desc="Теремок">
		<activity type="l2">
		</activity>

	</facility>

<!-- ====================================================================== -->

	<facility id="1005338925" x="683608.3076550129" y="6651609.104705081" desc="Евроcпорт">
		<activity type="s">
		</activity>

	</facility>

<!-- ====================================================================== -->

	<facility id="1005338926" x="683712.4573983122" y="6651615.681522867" desc="Продукты">
		<activity type="s">
		</activity>

	</facility>

<!-- ====================================================================== -->

	<facility id="1005338928" x="683687.5594472575" y="6651583.553872777" desc="Первая помощь">
		<activity type="pharmacy">
		</activity>

	</facility>

<!-- ====================================================================== -->

	<facility id="1005338930" x="683680.4401996988" y="6651567.113928889" desc="Дамская удача">
		<activity type="s">
		</activity>

	</facility>

<!-- ====================================================================== -->

	<facility id="1005338933" x="683658.738000965" y="6651537.1869311165" desc="Продукты">
		<activity type="s">
		</activity>

	</facility>

<!-- ====================================================================== -->

	<facility id="1005338934" x="683740.4752781019" y="6651664.005737589" desc="Дикси">
		<activity type="s">
		</activity>

	</facility>

<!-- ====================================================================== -->

	<facility id="1005338937" x="683708.1813541771" y="6651610.225791849" desc="Чайная ложка">
		<activity type="l2">
		</activity>

	</facility>

<!-- ====================================================================== -->

	<facility id="1005338938" x="683683.9124588603" y="6651572.986979928" desc="Цветоптторг">
		<activity type="s">
		</activity>

	</facility>

<!-- ====================================================================== -->

	<facility id="1005345806" x="683675.1402478288" y="6651644.166173368" desc="Чкаловская клиника">
		<activity type="l1">
		</activity>

	</facility>

<!-- ====================================================================== -->

	<facility id="1005484518" x="682428.7303435035" y="6649763.678970604" desc="Дикси">
		<activity type="s">
		</activity>

	</facility>

<!-- ====================================================================== -->

	<facility id="100760866" x="682575.4877702233" y="6645867.520062621" desc="">
		<activity type="kindergarden">
		</activity>

	</facility>

<!-- ====================================================================== -->

	<facility id="100789654" x="683188.7966778033" y="6646905.192051143" desc="Санкт-Петербургский государственный морской технический университет">
		<activity type="university">
		</activity>

	</facility>

<!-- ====================================================================== -->

	<facility id="100816815" x="681940.4661077478" y="6653418.733450538" desc="Остров">
		<activity type="l2">
		</activity>

	</facility>

<!-- ====================================================================== -->

	<facility id="100821442" x="681578.4467648057" y="6653734.554674572" desc="Нота">
		<activity type="l2">
		</activity>

	</facility>

<!-- ====================================================================== -->

	<facility id="1012892025" x="684994.3934991723" y="6652682.5239342945" desc="Васаби">
		<activity type="l2">
		</activity>

	</facility>

<!-- ====================================================================== -->

	<facility id="1013351290" x="691554.108808939" y="6645195.948858294" desc="Магзин ортопедической обуви Орто-С">
		<activity type="s">
		</activity>

	</facility>

<!-- ====================================================================== -->

	<facility id="1013351355" x="691677.6409184751" y="6645072.629681902" desc="Шанель">
		<activity type="s">
		</activity>

	</facility>

<!-- ====================================================================== -->

	<facility id="1013351374" x="691603.0132738962" y="6645257.343235322" desc="Олимпикс">
		<activity type="l2">
		</activity>

	</facility>

<!-- ====================================================================== -->

	<facility id="101370361" x="682841.1868546973" y="6646127.829969766" desc="Школа №288">
		<activity type="school">
		</activity>

	</facility>

<!-- ====================================================================== -->

	<facility id="101388112" x="683541.7533482191" y="6654717.26180632" desc="Гимназия №631">
		<activity type="school">
		</activity>

	</facility>

<!-- ====================================================================== -->

	<facility id="101539846" x="688118.8829510948" y="6648794.134569815" desc="ЦДГБ им. А.С. Пушкина">
		<activity type="e6">
		</activity>

	</facility>

<!-- ====================================================================== -->

	<facility id="1015542442" x="691448.0409649152" y="6654602.799690386" desc="Балтик-Эндомед">
		<activity type="pharmacy">
		</activity>

	</facility>

<!-- ====================================================================== -->

	<facility id="1015543095" x="691105.8992468348" y="6654750.247277115" desc="">
		<activity type="pharmacy">
		</activity>

	</facility>

<!-- ====================================================================== -->

	<facility id="1015543158" x="691059.7905069041" y="6654652.95882421" desc="">
		<activity type="pharmacy">
		</activity>

	</facility>

<!-- ====================================================================== -->

	<facility id="1015543277" x="691072.1475159886" y="6654677.507955626" desc="">
		<activity type="s">
		</activity>

	</facility>

<!-- ====================================================================== -->

	<facility id="1015546351" x="691382.1765687393" y="6654348.766420019" desc="Столовая">
		<activity type="l2">
		</activity>

	</facility>

<!-- ====================================================================== -->

	<facility id="1015547358" x="691699.1354646679" y="6654249.378505261" desc="">
		<activity type="l2">
		</activity>

	</facility>

<!-- ====================================================================== -->

	<facility id="1016200988" x="685689.7520245358" y="6649525.467629242" desc="Bagatelle">
		<activity type="l2">
		</activity>

	</facility>

<!-- ====================================================================== -->

	<facility id="1016221823" x="685841.8339107098" y="6641649.586626023" desc="Samsung">
		<activity type="s">
		</activity>

	</facility>

<!-- ====================================================================== -->

	<facility id="1016557078" x="684088.9328038081" y="6650661.719675628" desc="Фармакор">
		<activity type="pharmacy">
		</activity>

	</facility>

<!-- ====================================================================== -->

	<facility id="1016565311" x="683931.2219217371" y="6650909.066888701" desc="Невис">
		<activity type="pharmacy">
		</activity>

	</facility>

<!-- ====================================================================== -->

	<facility id="1021175851" x="686600.6436402655" y="6647751.4229502175" desc="Фармадом">
		<activity type="pharmacy">
		</activity>

	</facility>

<!-- ====================================================================== -->

	<facility id="1021353733" x="686514.9894620395" y="6647693.56410552" desc="Тройка">
		<activity type="l2">
		</activity>

	</facility>

<!-- ====================================================================== -->

	<facility id="102268914" x="689373.7136924943" y="6652683.7539142845" desc="Лукойл">
		<activity type="s">
		</activity>

	</facility>

<!-- ====================================================================== -->

	<facility id="102305446" x="685836.1770328905" y="6649225.520438142" desc="Поликлиника №39">
		<activity type="hospital">
		</activity>

	</facility>

<!-- ====================================================================== -->

	<facility id="1024868051" x="687631.5322457602" y="6648720.161841065" desc="Школа №207">
		<activity type="school">
		</activity>

	</facility>

<!-- ====================================================================== -->

	<facility id="1024868071" x="687685.9340295019" y="6648855.288832468" desc="Гимназия №209">
		<activity type="school">
		</activity>

	</facility>

<!-- ====================================================================== -->

	<facility id="1024868122" x="687523.7140000598" y="6648731.187662362" desc="Школа №207">
		<activity type="school">
		</activity>

	</facility>

<!-- ====================================================================== -->

	<facility id="1025460216" x="691662.2159279233" y="6645353.37750325" desc="Зоомагазин">
		<activity type="s">
		</activity>

	</facility>

<!-- ====================================================================== -->

	<facility id="1025460410" x="691672.7854262325" y="6645361.823959587" desc="Невская ветеринарная лечебница">
		<activity type="l1">
		</activity>

	</facility>

<!-- ====================================================================== -->

	<facility id="1025774215" x="684532.4304805165" y="6652801.363573704" desc="Омега">
		<activity type="l2">
		</activity>

	</facility>

<!-- ====================================================================== -->

	<facility id="1030506195" x="687037.7140613444" y="6647058.413777681" desc="Дикси">
		<activity type="s">
		</activity>

	</facility>

<!-- ====================================================================== -->

	<facility id="1030648729" x="686159.649384283" y="6651418.971614545" desc="Чердак">
		<activity type="l2">
		</activity>

	</facility>

<!-- ====================================================================== -->

	<facility id="1033299499" x="687453.692110423" y="6648790.1180927325" desc="Кофе Хауз">
		<activity type="l2">
		</activity>

	</facility>

<!-- ====================================================================== -->

	<facility id="1033321341" x="687439.3473739446" y="6648600.099031007" desc="Пицца Хат">
		<activity type="l2">
		</activity>

	</facility>

<!-- ====================================================================== -->

	<facility id="1033321348" x="687474.021991479" y="6648594.004474519" desc="36,6">
		<activity type="pharmacy">
		</activity>

	</facility>

<!-- ====================================================================== -->

	<facility id="1033332959" x="687505.0836436918" y="6648497.030306702" desc="Сладкоежка">
		<activity type="l2">
		</activity>

	</facility>

<!-- ====================================================================== -->

	<facility id="1033365687" x="690401.8620212589" y="6651176.552994066" desc="">
		<activity type="s">
		</activity>

	</facility>

<!-- ====================================================================== -->

	<facility id="1033365698" x="690454.9127504083" y="6651496.0328522995" desc="">
		<activity type="s">
		</activity>

	</facility>

<!-- ====================================================================== -->

	<facility id="1034004075" x="682536.1895633958" y="6641301.116921198" desc="Петербургские Аптеки">
		<activity type="pharmacy">
		</activity>

	</facility>

<!-- ====================================================================== -->

	<facility id="1034050628" x="682008.5790368922" y="6641685.722810611" desc="ШиноМонтаж">
		<activity type="s">
		</activity>

	</facility>

<!-- ====================================================================== -->

	<facility id="1034209789" x="682760.3543428214" y="6642543.053365525" desc="Кинополис">
		<activity type="l3">
		</activity>

	</facility>

<!-- ====================================================================== -->

	<facility id="1034209805" x="682940.4176580567" y="6643757.314613845" desc="Здоровые люди">
		<activity type="pharmacy">
		</activity>

	</facility>

<!-- ====================================================================== -->

	<facility id="1034246710" x="683153.680517758" y="6644661.082402407" desc="Пятёрочка">
		<activity type="s">
		</activity>

	</facility>

<!-- ====================================================================== -->

	<facility id="1034246734" x="683079.5330338005" y="6643924.286349886" desc="Пятёрочка">
		<activity type="s">
		</activity>

	</facility>

<!-- ====================================================================== -->

	<facility id="1034363204" x="687509.3413448961" y="6648520.372315177" desc="Кофе Хауз">
		<activity type="l2">
		</activity>

	</facility>

<!-- ====================================================================== -->

	<facility id="1034363208" x="687535.5372448076" y="6648530.771379939" desc="Tezenis">
		<activity type="s">
		</activity>

	</facility>

<!-- ====================================================================== -->

	<facility id="1034363210" x="687457.8701033534" y="6648450.848399772" desc="Чайная ложка">
		<activity type="l2">
		</activity>

	</facility>

<!-- ====================================================================== -->

	<facility id="103594991" x="688063.084521473" y="6641656.009212188" desc="Продукты">
		<activity type="s">
		</activity>

	</facility>

<!-- ====================================================================== -->

	<facility id="103636625" x="684917.9605280099" y="6655097.206500842" desc="Корица">
		<activity type="l2">
		</activity>

	</facility>

<!-- ====================================================================== -->

	<facility id="103837265" x="685846.6241079427" y="6642973.893862403" desc="Нева-Автоком">
		<activity type="s">
		</activity>

	</facility>

<!-- ====================================================================== -->

	<facility id="104140108" x="683797.878443016" y="6645327.061569131" desc="Лукойл">
		<activity type="s">
		</activity>

	</facility>

<!-- ====================================================================== -->

	<facility id="104287868" x="683698.9207444995" y="6649593.361841629" desc="СПБГУ, Факультет Журналистики">
		<activity type="university">
		</activity>

	</facility>

<!-- ====================================================================== -->

	<facility id="1044980534" x="690317.1592333349" y="6652757.004502911" desc="Колесо">
		<activity type="s">
		</activity>

	</facility>

<!-- ====================================================================== -->

	<facility id="1044983547" x="690868.6050863243" y="6653951.144640562" desc="Пятёрочка">
		<activity type="s">
		</activity>

	</facility>

<!-- ====================================================================== -->

	<facility id="1045509891" x="687560.9499544466" y="6651148.562214254" desc="Кипарис">
		<activity type="s">
		</activity>

	</facility>

<!-- ====================================================================== -->

	<facility id="104666283" x="682624.8266741866" y="6642024.452008981" desc="Детская поликлиника №21 Кировского района">
		<activity type="hospital">
		</activity>

	</facility>

<!-- ====================================================================== -->

	<facility id="104674074" x="682838.4436841389" y="6642243.176845399" desc="Школа №397">
		<activity type="school">
		</activity>

	</facility>

<!-- ====================================================================== -->

	<facility id="104674229" x="682913.891642056" y="6642316.496698231" desc="Детский сад №5">
		<activity type="kindergarden">
		</activity>

	</facility>

<!-- ====================================================================== -->

	<facility id="104707667" x="686593.3357285934" y="6642633.631493753" desc="Продукты">
		<activity type="s">
		</activity>

	</facility>

<!-- ====================================================================== -->

	<facility id="10503632" x="679983.8972026992" y="6654085.935379386" desc="Лента">
		<activity type="s">
		</activity>

	</facility>

<!-- ====================================================================== -->

	<facility id="105299521" x="692473.0982263002" y="6643345.90702148" desc="">
		<activity type="l2">
		</activity>

	</facility>

<!-- ====================================================================== -->

	<facility id="105575531" x="686007.9506596507" y="6643705.888487348" desc="Фрукты, овощи">
		<activity type="s">
		</activity>

	</facility>

<!-- ====================================================================== -->

	<facility id="1056291251" x="689707.6607990717" y="6654507.868019342" desc="">
		<activity type="pharmacy">
		</activity>

	</facility>

<!-- ====================================================================== -->

	<facility id="1056291260" x="689749.4691452333" y="6654496.7097353125" desc="Народная 7Я семьЯ">
		<activity type="s">
		</activity>

	</facility>

<!-- ====================================================================== -->

	<facility id="105637186" x="681486.0253345403" y="6653974.093210785" desc="Касса">
		<activity type="s">
		</activity>

	</facility>

<!-- ====================================================================== -->

	<facility id="1056399175" x="685938.7683009566" y="6642569.074989406" desc="Лекоптторг">
		<activity type="pharmacy">
		</activity>

	</facility>

<!-- ====================================================================== -->

	<facility id="1056399186" x="685755.530721753" y="6642527.907747029" desc="Здоровые люди">
		<activity type="pharmacy">
		</activity>

	</facility>

<!-- ====================================================================== -->

	<facility id="1057547828" x="684688.9061930578" y="6654762.697065102" desc="Универсам">
		<activity type="s">
		</activity>

	</facility>

<!-- ====================================================================== -->

	<facility id="1057551855" x="684456.2088235985" y="6655111.956139934" desc="Дикси">
		<activity type="s">
		</activity>

	</facility>

<!-- ====================================================================== -->

	<facility id="1057555156" x="684382.3453236179" y="6654973.426451694" desc="Фармакор">
		<activity type="pharmacy">
		</activity>

	</facility>

<!-- ====================================================================== -->

	<facility id="1059010520" x="684948.7458873183" y="6646468.87412474" desc="Детская школа искусств имени М. Ростроповича">
		<activity type="school">
		</activity>

	</facility>

<!-- ====================================================================== -->

	<facility id="1062492042" x="683595.3166133512" y="6649770.171612333" desc="">
		<activity type="pharmacy">
		</activity>

	</facility>

<!-- ====================================================================== -->

	<facility id="1063604045" x="683404.8539705046" y="6650071.554175853" desc="Норман">
		<activity type="s">
		</activity>

	</facility>

<!-- ====================================================================== -->

	<facility id="1063604047" x="683426.7625540649" y="6650099.704333441" desc="Старый город">
		<activity type="l2">
		</activity>

	</facility>

<!-- ====================================================================== -->

	<facility id="1063650762" x="683084.782222545" y="6649518.629299278" desc="СИТИ">
		<activity type="s">
		</activity>

	</facility>

<!-- ====================================================================== -->

	<facility id="1063779247" x="688318.284470723" y="6648885.625017489" desc="Дикси">
		<activity type="s">
		</activity>

	</facility>

<!-- ====================================================================== -->

	<facility id="106415060" x="686593.0570143149" y="6648573.207450088" desc="Аничков лицей">
		<activity type="school">
		</activity>

	</facility>

<!-- ====================================================================== -->

	<facility id="1065124772" x="683429.2701606823" y="6649830.859327191" desc="Метрополь-Север">
		<activity type="s">
		</activity>

	</facility>

<!-- ====================================================================== -->

	<facility id="1065124774" x="683479.3945083899" y="6649957.381713798" desc="Штолле">
		<activity type="l2">
		</activity>

	</facility>

<!-- ====================================================================== -->

	<facility id="1065129759" x="683605.5734545161" y="6649902.244022949" desc="Спектр">
		<activity type="s">
		</activity>

	</facility>

<!-- ====================================================================== -->

	<facility id="1065129760" x="683672.2838997962" y="6649873.9141695155" desc="Muscat">
		<activity type="l2">
		</activity>

	</facility>

<!-- ====================================================================== -->

	<facility id="1065129762" x="683419.31257911" y="6649827.854923231" desc="deep">
		<activity type="l2">
		</activity>

	</facility>

<!-- ====================================================================== -->

	<facility id="1065132584" x="683510.3977878182" y="6649875.705635965" desc="Цирюльня">
		<activity type="s">
		</activity>

	</facility>

<!-- ====================================================================== -->

	<facility id="1065186477" x="685100.0910498917" y="6646372.033634402" desc="Павлин">
		<activity type="l2">
		</activity>

	</facility>

<!-- ====================================================================== -->

	<facility id="1067136" x="684839.092348742" y="6647773.320728332" desc="Поликлиника №27">
		<activity type="hospital">
		</activity>

	</facility>

<!-- ====================================================================== -->

	<facility id="1067504135" x="683522.6871804117" y="6649892.256817349" desc="Продукты 24">
		<activity type="s">
		</activity>

	</facility>

<!-- ====================================================================== -->

	<facility id="1067504146" x="683518.1958241609" y="6649899.529815281" desc="Шаверма">
		<activity type="l2">
		</activity>

	</facility>

<!-- ====================================================================== -->

	<facility id="1067885" x="684808.1789485638" y="6648172.420678572" desc="Больница №28 Максимилиановская">
		<activity type="hospital">
		</activity>

	</facility>

<!-- ====================================================================== -->

	<facility id="1068044895" x="686389.1806754183" y="6648220.296969116" desc="Фиолет">
		<activity type="l2">
		</activity>

	</facility>

<!-- ====================================================================== -->

	<facility id="1069038151" x="687812.7682993199" y="6644777.926655993" desc="Подшипники">
		<activity type="s">
		</activity>

	</facility>

<!-- ====================================================================== -->

	<facility id="1069055568" x="688257.8937302475" y="6643706.416516861" desc="Студенческая столовая">
		<activity type="l2">
		</activity>

	</facility>

<!-- ====================================================================== -->

	<facility id="106952183" x="681735.3715981164" y="6654323.704277717" desc="Школа №44 (начальные классы)">
		<activity type="school">
		</activity>

	</facility>

<!-- ====================================================================== -->

	<facility id="106952184" x="681769.9000242075" y="6654385.524960513" desc="Детский сад №40">
		<activity type="kindergarden">
		</activity>

	</facility>

<!-- ====================================================================== -->

	<facility id="1070039062" x="686440.1118428337" y="6647772.058694726" desc="Продукты">
		<activity type="s">
		</activity>

	</facility>

<!-- ====================================================================== -->

	<facility id="107060761" x="683355.9501811012" y="6649926.074164695" desc="ГБОУ гимназия № 32">
		<activity type="school">
		</activity>

	</facility>

<!-- ====================================================================== -->

	<facility id="1071608699" x="691848.0932348414" y="6649902.066202482" desc="Островок счастья">
		<activity type="l2">
		</activity>

	</facility>

<!-- ====================================================================== -->

	<facility id="1072598488" x="687305.2762951589" y="6646579.535555845" desc="Евразия">
		<activity type="l2">
		</activity>

	</facility>

<!-- ====================================================================== -->

	<facility id="107454284" x="683786.3092976704" y="6649878.699746912" desc="Высшая школа менеджмента СПБГУ">
		<activity type="university">
		</activity>

	</facility>

<!-- ====================================================================== -->

	<facility id="1074795250" x="684765.1353394305" y="6646357.948927083" desc="Начальная школа - детский сад №624">
		<activity type="kindergarden">
		</activity>

	</facility>

<!-- ====================================================================== -->

	<facility id="1074903639" x="691759.0683666123" y="6648953.475489444" desc="Закаж">
		<activity type="s">
		</activity>

	</facility>

<!-- ====================================================================== -->

	<facility id="107544360" x="684158.4553614886" y="6649621.253454675" desc="Здание ИТМО">
		<activity type="university">
		</activity>

	</facility>

<!-- ====================================================================== -->

	<facility id="107544381" x="684118.9231139844" y="6649685.477239777" desc="Оптическое общество имени Д.С. Рождественского">
		<activity type="university">
		</activity>

	</facility>

<!-- ====================================================================== -->

	<facility id="107544387" x="684094.428330782" y="6649716.271519079" desc="Государственный оптический институт С.И. Вавилова">
		<activity type="university">
		</activity>

	</facility>

<!-- ====================================================================== -->

	<facility id="1076341858" x="689383.0966381897" y="6654278.82261961" desc="">
		<activity type="s">
		</activity>

	</facility>

<!-- ====================================================================== -->

	<facility id="1076812498" x="687913.9250718963" y="6647262.820704087" desc="Liden  Denz">
		<activity type="school">
		</activity>

	</facility>
